%nproc=2
%mem=256MB
%RWF=d23.rwf
%chk=d23.chk
%NoSave
#SP PBE1PBE/Def2TZVP geom=connectivity

Structure: 30

  0  1
  H     0.000000   0.000000   0.000000
  C     1.093000   0.000000   0.000000
  C     1.655000   1.421000  -0.000000
  H     1.410000  -0.560000  -0.885000
  H     1.424000  -0.557000   0.880000
  H     1.308000   1.969000  -0.883000
  Si     3.513000   1.515000   0.035000
  H     1.282000   1.975000   0.868000
  O     4.075000   3.061000   0.155000
  O     4.023000   0.786000  -1.345000
  H     4.110000   0.840000   1.216000
  H     3.766000   3.695000  -0.493000
  C     5.378000   0.576000  -1.665000
  H     5.429000   0.010000  -2.597000
  H     5.890000   0.003000  -0.883000
  H     5.909000   1.524000  -1.801000

1 2 1.0 
2 4 1.0 5 1.0 3 1.0 
3 6 1.0 8 1.0 7 1.0 
4 
5 
6 
7 11 1.0 9 1.0 10 1.0 
8 
9 12 1.0 
10 13 1.0 
11 
12 
13 14 1.0 15 1.0 16 1.0 
14 
15 
16

