%nproc=2
%mem=256MB
%RWF=d23.rwf
%chk=d23.chk
%NoSave
#SP PBE1PBE/Def2TZVP geom=connectivity

Structure: 47

  0  1
  H     0.000000   0.000000   0.000000
  C     1.093000   0.000000   0.000000
  C     1.655000   1.421000  -0.000000
  H     1.410000  -0.560000  -0.885000
  H     1.424000  -0.557000   0.880000
  H     1.308000   1.969000  -0.883000
  Si     3.513000   1.515000   0.035000
  H     1.282000   1.975000   0.868000
  O     4.075000   2.741000   0.984000
  O     3.980000   1.691000  -1.529000
  H     4.148000   0.308000   0.622000
  H     3.745000   3.623000   0.809000
  C     5.325000   1.721000  -1.946000
  H     5.347000   1.774000  -3.036000
  H     5.863000   0.820000  -1.631000
  H     5.850000   2.594000  -1.543000

1 2 1.0 
2 4 1.0 5 1.0 3 1.0 
3 6 1.0 8 1.0 7 1.0 
4 
5 
6 
7 11 1.0 9 1.0 10 1.0 
8 
9 12 1.0 
10 13 1.0 
11 
12 
13 14 1.0 15 1.0 16 1.0 
14 
15 
16

