%nproc=2
%mem=256MB
%RWF=d23.rwf
%chk=d23.chk
%NoSave
#SP PBE1PBE/Def2TZVP geom=connectivity

Structure: 54

  0  1
  H     0.000000   0.000000   0.000000
  C     1.093000   0.000000   0.000000
  C     1.655000   1.421000  -0.000000
  H     1.410000  -0.560000  -0.885000
  H     1.424000  -0.557000   0.880000
  H     1.308000   1.969000  -0.883000
  Si     3.513000   1.515000   0.035000
  H     1.282000   1.975000   0.868000
  O     4.084000   2.479000   1.245000
  O     3.960000   2.066000  -1.446000
  H     4.160000   0.206000   0.306000
  H     3.748000   3.375000   1.293000
  C     5.299000   2.205000  -1.858000
  H     5.307000   2.519000  -2.904000
  H     5.844000   1.257000  -1.777000
  H     5.826000   2.957000  -1.263000

1 2 1.0 
2 4 1.0 5 1.0 3 1.0 
3 6 1.0 8 1.0 7 1.0 
4 
5 
6 
7 11 1.0 9 1.0 10 1.0 
8 
9 12 1.0 
10 13 1.0 
11 
12 
13 14 1.0 15 1.0 16 1.0 
14 
15 
16

