%nproc=2
%mem=256MB
%RWF=d23.rwf
%chk=d23.chk
%NoSave
#SP PBE1PBE/Def2TZVP geom=connectivity

Structure: 88

  0  1
  H     0.000000   0.000000   0.000000
  C     1.093000   0.000000   0.000000
  C     1.655000   1.421000  -0.000000
  H     1.410000  -0.560000  -0.885000
  H     1.424000  -0.557000   0.880000
  H     1.308000   1.969000  -0.883000
  Si     3.513000   1.515000   0.035000
  H     1.282000   1.975000   0.868000
  O     4.168000   0.787000   1.362000
  O     3.879000   3.115000  -0.025000
  H     4.156000   0.804000  -1.099000
  H     3.848000   1.063000   2.222000
  C     5.194000   3.614000  -0.099000
  H     5.145000   4.701000  -0.200000
  H     5.729000   3.209000  -0.965000
  H     5.766000   3.373000   0.803000

1 2 1.0 
2 4 1.0 5 1.0 3 1.0 
3 6 1.0 8 1.0 7 1.0 
4 
5 
6 
7 11 1.0 9 1.0 10 1.0 
8 
9 12 1.0 
10 13 1.0 
11 
12 
13 14 1.0 15 1.0 16 1.0 
14 
15 
16

